<?xml version="1.0" encoding="UTF-8"?>

<!-- generated on 2023-03-24 00:17:04 by Eclipse SUMO netedit Version 1.11.0
<configuration xmlns:xsi="http://www.w3.org/2001/XMLSchema-instance" xsi:noNamespaceSchemaLocation="http://sumo.dlr.de/xsd/netconvertConfiguration.xsd">

    <input>
        <sumo-net-file value="/home/simu5g/sumo-1.11.0/crossTraffic1.net.xml"/>
    </input>

    <output>
        <output-file value="/home/simu5g/sumo-1.11.0/crossTraffic1.net.xml"/>
    </output>

    <processing>
        <geometry.min-radius.fix.railways value="false"/>
        <geometry.max-grade.fix value="false"/>
        <offset.disable-normalization value="true"/>
        <lefthand value="false"/>
    </processing>

    <junctions>
        <no-turnarounds value="true"/>
        <junctions.corner-detail value="5"/>
        <junctions.limit-turn-speed value="5.5"/>
        <rectangular-lane-cut value="false"/>
    </junctions>

    <pedestrian>
        <walkingareas value="false"/>
    </pedestrian>

    <report>
        <aggregate-warnings value="5"/>
    </report>

</configuration>
-->

<net version="1.9" junctionCornerDetail="5" limitTurnSpeed="5.50" xmlns:xsi="http://www.w3.org/2001/XMLSchema-instance" xsi:noNamespaceSchemaLocation="http://sumo.dlr.de/xsd/net_file.xsd">

    <location netOffset="0.00,0.00" convBoundary="660.00,460.00,740.00,540.00" origBoundary="-10000000000.00,-10000000000.00,10000000000.00,10000000000.00" projParameter="!"/>

    <edge id=":J8_0" function="internal">
        <lane id=":J8_0_0" index="0" speed="7.33" length="11.73" shape="701.60,489.60 701.95,493.45 703.00,496.20 704.75,497.85 707.20,498.40"/>
    </edge>
    <edge id=":J8_1" function="internal">
        <lane id=":J8_1_0" index="0" speed="13.89" length="20.80" shape="701.60,489.60 701.60,510.40"/>
    </edge>
    <edge id=":J8_2" function="internal">
        <lane id=":J8_2_0" index="0" speed="8.67" length="16.85" shape="701.60,489.60 701.05,494.85 699.40,498.60 696.65,500.85 692.80,501.60"/>
    </edge>
    <edge id=":J8_3" function="internal">
        <lane id=":J8_3_0" index="0" speed="8.67" length="16.85" shape="692.80,498.40 696.65,499.15 699.40,501.40 701.05,505.15 701.60,510.40"/>
    </edge>

    <edge id="-E4" from="J8" to="J7" priority="-1">
        <lane id="-E4_0" index="0" speed="13.89" length="32.80" shape="692.80,504.80 660.00,504.80"/>
        <lane id="-E4_1" index="1" speed="13.89" length="32.80" shape="692.80,501.60 660.00,501.60"/>
    </edge>
    <edge id="-E5" from="J9" to="J8" priority="-1">
        <lane id="-E5_0" index="0" speed="13.89" length="32.80" shape="740.00,504.80 707.20,504.80"/>
        <lane id="-E5_1" index="1" speed="13.89" length="32.80" shape="740.00,501.60 707.20,501.60"/>
    </edge>
    <edge id="-E6" from="J10" to="J8" priority="-1">
        <lane id="-E6_0" index="0" speed="13.89" length="29.60" shape="698.40,540.00 698.40,510.40"/>
    </edge>
    <edge id="-E7" from="J11" to="J8" priority="-1">
        <lane id="-E7_0" index="0" speed="13.89" length="29.60" shape="701.60,460.00 701.60,489.60"/>
    </edge>
    <edge id="E4" from="J7" to="J8" priority="-1">
        <lane id="E4_0" index="0" speed="13.89" length="32.80" shape="660.00,495.20 692.80,495.20"/>
        <lane id="E4_1" index="1" speed="13.89" length="32.80" shape="660.00,498.40 692.80,498.40"/>
    </edge>
    <edge id="E5" from="J8" to="J9" priority="-1">
        <lane id="E5_0" index="0" speed="13.89" length="32.80" shape="707.20,495.20 740.00,495.20"/>
        <lane id="E5_1" index="1" speed="13.89" length="32.80" shape="707.20,498.40 740.00,498.40"/>
    </edge>
    <edge id="E6" from="J8" to="J10" priority="-1">
        <lane id="E6_0" index="0" speed="13.89" length="29.60" shape="701.60,510.40 701.60,540.00"/>
    </edge>
    <edge id="E7" from="J8" to="J11" priority="-1">
        <lane id="E7_0" index="0" speed="13.89" length="29.60" shape="698.40,489.60 698.40,460.00"/>
    </edge>

    <junction id="J10" type="dead_end" x="700.00" y="540.00" incLanes="E6_0" intLanes="" shape="700.00,540.00 703.20,540.00 700.00,540.00"/>
    <junction id="J11" type="dead_end" x="700.00" y="460.00" incLanes="E7_0" intLanes="" shape="700.00,460.00 696.80,460.00 700.00,460.00"/>
    <junction id="J7" type="dead_end" x="660.00" y="500.00" incLanes="-E4_0 -E4_1" intLanes="" shape="660.00,500.00 660.00,506.40 660.00,500.00"/>
    <junction id="J8" type="priority" x="700.00" y="500.00" incLanes="-E6_0 -E5_0 -E5_1 -E7_0 E4_0 E4_1" intLanes=":J8_0_0 :J8_1_0 :J8_2_0 :J8_3_0" shape="696.80,510.40 703.20,510.40 703.64,508.18 704.20,507.40 704.98,506.84 705.98,506.51 707.20,506.40 707.20,493.60 704.98,493.16 704.20,492.60 703.64,491.82 703.31,490.82 703.20,489.60 696.80,489.60 696.36,491.82 695.80,492.60 695.02,493.16 694.02,493.49 692.80,493.60 692.80,506.40 695.02,506.84 695.80,507.40 696.36,508.18 696.69,509.18">
        <request index="0" response="0000" foes="0000" cont="0"/>
        <request index="1" response="1000" foes="1000" cont="0"/>
        <request index="2" response="1000" foes="1000" cont="0"/>
        <request index="3" response="0000" foes="0110" cont="0"/>
    </junction>
    <junction id="J9" type="dead_end" x="740.00" y="500.00" incLanes="E5_0 E5_1" intLanes="" shape="740.00,500.00 740.00,493.60 740.00,500.00"/>

    <connection from="-E7" to="E5" fromLane="0" toLane="1" via=":J8_0_0" dir="r" state="M"/>
    <connection from="-E7" to="E6" fromLane="0" toLane="0" via=":J8_1_0" dir="s" state="m"/>
    <connection from="-E7" to="-E4" fromLane="0" toLane="1" via=":J8_2_0" dir="l" state="m"/>
    <connection from="E4" to="E6" fromLane="1" toLane="0" via=":J8_3_0" dir="l" state="M"/>

    <connection from=":J8_0" to="E5" fromLane="0" toLane="1" dir="r" state="M"/>
    <connection from=":J8_1" to="E6" fromLane="0" toLane="0" dir="s" state="M"/>
    <connection from=":J8_2" to="-E4" fromLane="0" toLane="1" dir="l" state="M"/>
    <connection from=":J8_3" to="E6" fromLane="0" toLane="0" dir="l" state="M"/>

</net>
