<?xml version="1.0" encoding="UTF-8"?>
<routes>
  <vType accel="3.0" decel="6.0" id="CarA" length="5.0" minGap="2.5" maxSpeed="50.0" sigma="0.5" />
  <vType accel="2.0" decel="6.0" id="CarB" length="7.5" minGap="2.5" maxSpeed="50.0" sigma="0.5" />
  <vType accel="1.0" decel="5.0" id="CarC" length="5.0" minGap="2.5" maxSpeed="40.0" sigma="0.5" />
  <vType accel="1.0" decel="5.0" id="CarD" length="7.5" minGap="2.5" maxSpeed="30.0" sigma="0.5" />
  
  <route id="route01" edges="E4 E6"/>
  <route id="route02" edges="-E7"/>
  
  
 <!-- <flow id="flow01" color="0,0,1"  begin="0" end= "600" period="60" type="CarA" from="E4" to="E6" /> -->
 
  <flow id="flow01" color="0,0,1"  begin="0" end= "600" period="60" type="CarA" from="E4" to="E6">
    <stop lane="E4_1" endPos="32" duration="24"/>
  </flow>
  
  <flow id="flow02" color="1,0,0"  begin="0" end= "600" period="60" type="CarA" from="-E7" to="E6" />
  <flow id="flow03" color="1,0,0"  begin="0" end= "600" period="60" type="CarA" from="-E7" to="E5" />
  <flow id="flow04" color="1,0,0"  begin="0" end= "600" period="60" type="CarA" from="-E7" to="-E4" />

</routes>
