<?xml version="1.0"?>

<routes>
	<vType id="vtype0" accel="3.6" decel="4.5" sigma="0.5" length="2.5" minGap="2.5" maxSpeed="26" color="1,1,0"/>
	<vType id="vtype1" accel="3.6" decel="4.5" sigma="0.5" length="2.5" minGap="2.5" maxSpeed="18" color="1,1,0"/> 
	<route id="route0" edges="917838098"/>
	<route id="route1" edges="1155291406#0 1155291406#1 1155291406#2 917593538#0 917593538#1 548414466#0 548414466#1 548414466#2 329042664 548414464#0 548414464#1 548414465#1 548414465#2 548414465#3 548414465#5 548414465#6 548414465#7 548414465#8 548414465#9 117897754#0 117897754#1 117897754#2 917838095 61698056#1 61698056#2 1155291439#0 917838098 95045889#0 95045889#1 95045889#2 95045889#3 95045889#4 95045889#5 95045889#6 95045889#7 917605014#1 917605013 42404488#0 490429741 490429742#0 490429742#1 490429742#2 917606089 1155291429#1"/>
    <route id="route2" edges="263136697#0"/>								<!-- referencial de acidente -->
    <vehicle id="v0" type="vtype0" route="route0" depart="0"/>				<!-- desativando spoofing - comente -->
	<!-- <vehicle id="v1" type="vtype0" route="route1" depart="0"/>	-->		<!-- desativando spoofing - retire o comentário -->
	<flow id="flow0" type="vtype0" route="route1" begin="25" period="7" number="6"/>	
	<flow id="flow1" type="vtype1" route="route1" begin="25" period="7" number="6"/>
</routes>
